[General]
network = Eastleigh_5GNet
sim-time-limit = 50s
